Version 4
SHEET 1 880 680
WIRE 64 64 32 64
WIRE 448 64 288 64
WIRE 528 64 448 64
WIRE 64 128 -32 128
WIRE 304 128 288 128
WIRE 320 128 304 128
WIRE 448 128 448 64
WIRE 448 128 400 128
WIRE 304 160 304 128
WIRE 432 160 304 160
WIRE -32 176 -32 128
WIRE 32 176 32 64
WIRE 64 192 -48 192
WIRE 336 192 288 192
WIRE 48 224 -208 224
WIRE 336 240 336 192
WIRE 432 240 432 160
WIRE 432 240 416 240
WIRE -336 256 -352 256
WIRE -288 256 -336 256
WIRE -208 256 -208 224
WIRE -208 256 -224 256
WIRE -176 256 -208 256
WIRE -96 256 -112 256
WIRE 48 256 48 224
WIRE 64 256 48 256
WIRE -48 288 -48 192
WIRE 32 288 32 176
WIRE 32 304 32 288
WIRE -32 368 -32 176
WIRE 336 368 336 240
WIRE 336 368 -32 368
WIRE 432 368 432 304
WIRE 432 368 336 368
FLAG 32 304 0
FLAG 528 144 0
FLAG -496 336 0
FLAG -336 336 0
FLAG -96 336 0
SYMBOL Misc\\NE555 176 160 R0
SYMATTR InstName U1
SYMBOL voltage 528 48 R0
SYMATTR InstName V1
SYMATTR Value 5
SYMBOL res 416 112 R90
WINDOW 0 0 56 VBottom 2
WINDOW 3 32 56 VTop 2
SYMATTR InstName R1
SYMATTR Value 47k
SYMBOL res 432 224 R90
WINDOW 0 0 56 VBottom 2
WINDOW 3 32 56 VTop 2
SYMATTR InstName R2
SYMATTR Value 390k
SYMBOL cap 32 160 R90
WINDOW 0 0 32 VBottom 2
WINDOW 3 32 32 VTop 2
SYMATTR InstName C1
SYMATTR Value 1µ
SYMBOL res 48 272 R90
WINDOW 0 0 56 VBottom 2
WINDOW 3 32 56 VTop 2
SYMATTR InstName R3
SYMATTR Value 1k
SYMBOL diode 416 240 R0
SYMATTR InstName D1
SYMATTR Value RR1VWM6S
SYMBOL voltage -496 240 R0
WINDOW 123 0 0 Left 0
WINDOW 39 0 0 Left 0
SYMATTR InstName V2
SYMATTR Value PULSE(0 24 0 0 0 2 5)
SYMBOL Digital\\schmtinv -288 192 R0
SYMATTR InstName A1
SYMATTR SpiceLine2 Vhigh=5 Vlow=0
SYMBOL Digital\\schmtinv -176 192 R0
SYMATTR InstName A2
SYMATTR SpiceLine2 Vhigh=5 Vlow=0
SYMBOL diode -496 272 R270
WINDOW 0 32 32 VTop 2
WINDOW 3 0 32 VBottom 2
SYMATTR InstName D2
SYMBOL res -352 240 R0
SYMATTR InstName R4
SYMATTR Value 1k
SYMBOL res -336 240 R90
WINDOW 0 0 56 VBottom 2
WINDOW 3 32 56 VTop 2
SYMATTR InstName R5
SYMATTR Value 3k9
SYMBOL res -112 240 R0
SYMATTR InstName R6
SYMATTR Value 1k
TEXT -82 374 Left 2 !.tran 10
